src/test/resources/ieeefiles/33node-cdf.txt
 07/12/10                       10.0  0    0      33 Node Test System
BUS DATA FOLLOWS                            33 ITEMS
   0 Node00        1  1  3 1.000   0.00      0.0      0.0      0.0     0.0   12.66  1.0       0.0     0.0   0.0    0.0        0
   1 Node01        1  1  0 1.000   0.00    0.100    0.060      0.0     0.0     0.0  0.0       0.0     0.0   0.0    0.0        0
   2 Node02        1  1  0 1.000   0.00    0.090    0.040      0.0     0.0     0.0  0.0       0.0     0.0   0.0    0.0        0
   3 Node03        1  1  0 1.000   0.00    0.120    0.080      0.0     0.0     0.0  0.0       0.0     0.0   0.0    0.0        0
   4 Node04        1  1  0 1.000   0.00    0.060    0.030      0.0     0.0     0.0  0.0       0.0     0.0   0.0    0.0        0
   5 Node05        1  1  0 1.000   0.00    0.060    0.020      0.0     0.0     0.0  0.0       0.0     0.0   0.0    0.0        0
   6 Node06        1  1  0 1.000   0.00    0.200    0.100      0.0     0.0     0.0  0.0       0.0     0.0   0.0    0.0        0
   7 Node07        1  1  0 1.000   0.00    0.200    0.100      0.0     0.0     0.0  0.0       0.0     0.0   0.0    0.0        0
   8 Node08        1  1  0 1.000   0.00    0.060    0.020      0.0     0.0     0.0  0.0       0.0     0.0   0.0    0.0        0
   9 Node09        1  1  0 1.000   0.00    0.060    0.020      0.0     0.0     0.0  0.0       0.0     0.0   0.0    0.0        0
  10 Node10        1  1  0 1.000   0.00    0.045    0.030      0.0     0.0     0.0  0.0       0.0     0.0   0.0    0.0        0
  11 Node11        1  1  0 1.000   0.00    0.060    0.035      0.0     0.0     0.0  0.0       0.0     0.0   0.0    0.0        0
  12 Node12        1  1  0 1.000   0.00    0.060    0.035      0.0     0.0     0.0  0.0       0.0     0.0   0.0    0.0        0
  13 Node13        1  1  0 1.000   0.00    0.120    0.080      0.0     0.0     0.0  0.0       0.0     0.0   0.0    0.0        0
  14 Node14        1  1  0 1.000   0.00    0.060    0.010      0.0     0.0     0.0  0.0       0.0     0.0   0.0    0.0        0
  15 Node15        1  1  0 1.000   0.00    0.060    0.020      0.0     0.0     0.0  0.0       0.0     0.0   0.0    0.0        0
  16 Node16        1  1  0 1.000   0.00    0.060    0.020      0.0     0.0     0.0  0.0       0.0     0.0   0.0    0.0        0
  17 Node17        1  1  0 1.000   0.00    0.090    0.040      0.0     0.0     0.0  0.0       0.0     0.0   0.0    0.0        0
  18 Node18        1  1  0 1.000   0.00    0.090    0.040      0.0     0.0     0.0  0.0       0.0     0.0   0.0    0.0        0
  19 Node19        1  1  0 1.000   0.00    0.090    0.040      0.0     0.0     0.0  0.0       0.0     0.0   0.0    0.0        0
  20 Node20        1  1  0 1.000   0.00    0.090    0.040      0.0     0.0     0.0  0.0       0.0     0.0   0.0    0.0        0
  21 Node21        1  1  0 1.000   0.00    0.090    0.040      0.0     0.0     0.0  0.0       0.0     0.0   0.0    0.0        0
  22 Node22        1  1  0 1.000   0.00    0.090    0.050      0.0     0.0     0.0  0.0       0.0     0.0   0.0    0.0        0
  23 Node23        1  1  0 1.000   0.00    0.420    0.200      0.0     0.0     0.0  0.0       0.0     0.0   0.0    0.0        0
  24 Node24        1  1  0 1.000   0.00    0.420    0.200      0.0     0.0     0.0  0.0       0.0     0.0   0.0    0.0        0
  25 Node25        1  1  0 1.000   0.00    0.060    0.025      0.0     0.0     0.0  0.0       0.0     0.0   0.0    0.0        0
  26 Node26        1  1  0 1.000   0.00    0.060    0.025      0.0     0.0     0.0  0.0       0.0     0.0   0.0    0.0        0
  27 Node27        1  1  0 1.000   0.00    0.060    0.020      0.0     0.0     0.0  0.0       0.0     0.0   0.0    0.0        0
  28 Node28        1  1  0 1.000   0.00    0.120    0.070      0.0     0.0     0.0  0.0       0.0     0.0   0.0    0.0        0
  29 Node29        1  1  0 1.000   0.00    0.200    0.600      0.0     0.0     0.0  0.0       0.0     0.0   0.0    0.0        0
  30 Node30        1  1  0 1.000   0.00    0.150    0.070      0.0     0.0     0.0  0.0       0.0     0.0   0.0    0.0        0
  31 Node31        1  1  0 1.000   0.00    0.210    0.100      0.0     0.0     0.0  0.0       0.0     0.0   0.0    0.0        0
  32 Node32        1  1  0 1.000   0.00    0.060    0.040      0.0     0.0     0.0  0.0       0.0     0.0   0.0    0.0        0
-999
BRANCH DATA FOLLOWS                         32 ITEMS
   0    1  1  1 1 0   0.0058    0.0029    0.00000     0     0     0    0 0  0.0       0.0 0.0    0.0     0.0    0.0    0.0
   1    2  1  1 1 0   0.0308    0.0157    0.00000     0     0     0    0 0  0.0       0.0 0.0    0.0     0.0    0.0    0.0
   2    3  1  1 1 0   0.0228    0.0116    0.00000     0     0     0    0 0  0.0       0.0 0.0    0.0     0.0    0.0    0.0
   3    4  1  1 1 0   0.0238    0.0121    0.00000     0     0     0    0 0  0.0       0.0 0.0    0.0     0.0    0.0    0.0
   4    5  1  1 1 0   0.0511    0.0441    0.00000     0     0     0    0 0  0.0       0.0 0.0    0.0     0.0    0.0    0.0
   5    6  1  1 1 0   0.0117    0.0386    0.00000     0     0     0    0 0  0.0       0.0 0.0    0.0     0.0    0.0    0.0
   6    7  1  1 1 0   0.0444    0.0147    0.00000     0     0     0    0 0  0.0       0.0 0.0    0.0     0.0    0.0    0.0
   7    8  1  1 1 0   0.0643    0.0462    0.00000     0     0     0    0 0  0.0       0.0 0.0    0.0     0.0    0.0    0.0
   8    9  1  1 1 0   0.0651    0.0462    0.00000     0     0     0    0 0  0.0       0.0 0.0    0.0     0.0    0.0    0.0
   9   10  1  1 1 0   0.0123    0.0041    0.00000     0     0     0    0 0  0.0       0.0 0.0    0.0     0.0    0.0    0.0
  10   11  1  1 1 0   0.0234    0.0077    0.00000     0     0     0    0 0  0.0       0.0 0.0    0.0     0.0    0.0    0.0
  11   12  1  1 1 0   0.0916    0.0721    0.00000     0     0     0    0 0  0.0       0.0 0.0    0.0     0.0    0.0    0.0
  12   13  1  1 1 0   0.0338    0.0445    0.00000     0     0     0    0 0  0.0       0.0 0.0    0.0     0.0    0.0    0.0
  13   14  1  1 1 0   0.0369    0.0328    0.00000     0     0     0    0 0  0.0       0.0 0.0    0.0     0.0    0.0    0.0
  14   15  1  1 1 0   0.0466    0.0340    0.00000     0     0     0    0 0  0.0       0.0 0.0    0.0     0.0    0.0    0.0
  15   16  1  1 1 0   0.0804    0.1074    0.00000     0     0     0    0 0  0.0       0.0 0.0    0.0     0.0    0.0    0.0
  16   17  1  1 1 0   0.0457    0.0358    0.00000     0     0     0    0 0  0.0       0.0 0.0    0.0     0.0    0.0    0.0
   1   18  1  1 1 0   0.0102    0.0098    0.00000     0     0     0    0 0  0.0       0.0 0.0    0.0     0.0    0.0    0.0
  18   19  1  1 1 0   0.0939    0.0846    0.00000     0     0     0    0 0  0.0       0.0 0.0    0.0     0.0    0.0    0.0
  19   20  1  1 1 0   0.0255    0.0298    0.00000     0     0     0    0 0  0.0       0.0 0.0    0.0     0.0    0.0    0.0
  20   21  1  1 1 0   0.0442    0.0585    0.00000     0     0     0    0 0  0.0       0.0 0.0    0.0     0.0    0.0    0.0
   2   22  1  1 1 0   0.0282    0.0192    0.00000     0     0     0    0 0  0.0       0.0 0.0    0.0     0.0    0.0    0.0
  22   23  1  1 1 0   0.0560    0.0442    0.00000     0     0     0    0 0  0.0       0.0 0.0    0.0     0.0    0.0    0.0
  23   24  1  1 1 0   0.0559    0.0437    0.00000     0     0     0    0 0  0.0       0.0 0.0    0.0     0.0    0.0    0.0
   5   25  1  1 1 0   0.0127    0.0065    0.00000     0     0     0    0 0  0.0       0.0 0.0    0.0     0.0    0.0    0.0
  25   26  1  1 1 0   0.0177    0.0090    0.00000     0     0     0    0 0  0.0       0.0 0.0    0.0     0.0    0.0    0.0
  26   27  1  1 1 0   0.0661    0.0583    0.00000     0     0     0    0 0  0.0       0.0 0.0    0.0     0.0    0.0    0.0
  27   28  1  1 1 0   0.0502    0.0437    0.00000     0     0     0    0 0  0.0       0.0 0.0    0.0     0.0    0.0    0.0
  28   29  1  1 1 0   0.0317    0.0161    0.00000     0     0     0    0 0  0.0       0.0 0.0    0.0     0.0    0.0    0.0
  29   30  1  1 1 0   0.0608    0.0601    0.00000     0     0     0    0 0  0.0       0.0 0.0    0.0     0.0    0.0    0.0
  30   31  1  1 1 0   0.0194    0.0226    0.00000     0     0     0    0 0  0.0       0.0 0.0    0.0     0.0    0.0    0.0
  31   32  1  1 1 0   0.0213    0.0331    0.00000     0     0     0    0 0  0.0       0.0 0.0    0.0     0.0    0.0    0.0
-999
LOSS ZONES FOLLOWS                     1 ITEMS
  1 33 Node Test System
-99
INTERCHANGE DATA FOLLOWS               0 ITEMS
-9
TIE LINES FOLLOWS                      0 ITEMS
-999
END OF DATA
